4
Lattice="5.585965047289135 0.0 -5.129546015720603 -1.078373949074675 5.4808863457923485 -5.129546015720603 0.0 0.0 7.58388079" Properties=species:S:1:pos:R:3 pbc="T T T"
K        3.91988030       1.37022159      -1.33760562
K        0.58771080       4.11066476      -1.33760562
K        2.25379555       2.74044317      -5.12954602
Li       0.00000000       0.00000000       0.00000000
