4
Lattice="5.9357076507648365 0.0 3.426982410000001 1.9785692169216125 5.596238841328916 3.426982410000001 0.0 0.0 6.85396482" Properties=species:S:1:pos:R:3 pbc="T T T"
K        1.97856922       1.39905971       3.42698241
K        5.93570765       4.19717913      10.28094723
K        3.95713843       2.79811942       6.85396482
Li       0.00000000       0.00000000       0.00000000
