152
Lattice="8.80761884 0.0 5.393111110257962e-16 -8.972832595912476e-16 14.65374768 8.972832595912476e-16 0.0 0.0 20.12935861" Properties=species:S:1:pos:R:3 pbc="T T T"
Li       7.73816138       4.99282462      16.80725073
Li       1.06945746       9.66092306       3.32210788
Li       5.47326688      12.31969846       3.32210788
Li       1.06945746       9.66092306       6.74257143
Li       3.33435196       2.33404922      16.80725073
Li       7.73816138       4.99282462      13.38678718
Li       3.33435196       2.33404922      13.38678718
Li       5.47326688      12.31969846       6.74257143
Li       5.51493722       9.38298470       7.12477360
Li       3.29268162       5.27076298      13.00458501
Li       7.69649104       2.05611086      13.00458501
Li       3.29268162       5.27076298      17.18945290
Li       1.11112780      12.59763682       7.12477360
Li       5.51493722       9.38298470       2.93990571
Li       1.11112780      12.59763682       2.93990571
Li       7.69649104       2.05611086      17.18945290
Li       7.82973464       9.61127836      16.37060589
Li       0.97788420       5.04246932       3.75875272
Li       5.38169362       2.28440452       3.75875272
Li       0.97788420       5.04246932       6.30592659
Li       3.42592522      12.36934316      16.37060589
Li       7.82973464       9.61127836      13.82343202
Li       3.42592522      12.36934316      13.82343202
Li       5.38169362       2.28440452       6.30592659
Li       5.54344977      10.78595370      17.85990004
Li       3.26416907       3.86779398       2.26945857
Li       7.66797849       3.45907986       2.26945857
Li       3.26416907       3.86779398       7.79522074
Li       1.13964035      11.19466782      17.85990004
Li       5.54344977      10.78595370      12.33413787
Li       1.13964035      11.19466782      12.33413787
Li       7.66797849       3.45907986       7.79522074
Li       5.54311164      13.67138066      19.58007109
Li       3.26450720       0.98236702       0.54928752
Li       7.66831662       6.34450682       0.54928752
Li       3.26450720       0.98236702       9.51539178
Li       1.13930222       8.30924086      19.58007109
Li       5.54311164      13.67138066      10.61396683
Li       1.13930222       8.30924086      10.61396683
Li       7.66831662       6.34450682       9.51539178
Li       5.82616861       2.47225473      15.09701896
Li       2.98145023      12.18149295       5.03233965
Li       7.38525965       9.79912857       5.03233965
Li       1.42235919       4.85461911      15.09701896
Li       7.38759666       7.40749979      17.85240709
Li       1.42002218       7.24624789       2.27695152
Li       5.82383160       0.08062595       2.27695152
Li       1.42002218       7.24624789       7.78772778
Li       2.98378724      14.57312173      17.85240709
Li       7.38759666       7.40749979      12.34163083
Li       2.98378724      14.57312173      12.34163083
Li       5.82383160       0.08062595       7.78772778
Li       5.53062984      11.09731257       9.43236080
Li       3.27698900       3.55643511      10.69699781
Li       7.68079842       3.77043873      10.69699781
Li       3.27698900       3.55643511      19.49704010
Li       1.12682042      10.88330895       9.43236080
Li       5.53062984      11.09731257       0.63231851
Li       1.12682042      10.88330895       0.63231851
Li       7.68079842       3.77043873      19.49704010
Li       5.60886968      14.32611567      16.66246227
Li       3.19874916       0.32763201       3.46689634
Li       7.60255858       6.99924183       3.46689634
Li       3.19874916       0.32763201       6.59778296
Li       1.20506026       7.65450585      16.66246227
Li       5.60886968      14.32611567      13.53157565
Li       1.20506026       7.65450585      13.53157565
Li       7.60255858       6.99924183       6.59778296
Li       8.73340602      14.26973230      17.60163695
Li       0.07421282       0.38401538       2.52772166
Li       4.47802224       6.94285846       2.52772166
Li       0.07421282       0.38401538       7.53695764
Li       4.32959660       7.71088922      17.60163695
Li       8.73340602      14.26973230      12.59240097
Li       4.32959660       7.71088922      12.59240097
Li       4.47802224       6.94285846       7.53695764
Li       7.59580772      12.29746110      16.33874072
Li       1.21181112       2.35628658       3.79061789
Li       5.61562054       4.97058726       3.79061789
Li       1.21181112       2.35628658       6.27406141
Li       3.19199830       9.68316042      16.33874072
Li       7.59580772      12.29746110      13.85529720
Li       3.19199830       9.68316042      13.85529720
Li       5.61562054       4.97058726       6.27406141
Li       5.40981837       5.41815360      15.09701896
Li       3.39780047       9.23559408       5.03233965
Li       7.80160989      12.74502744       5.03233965
Li       1.00600895       1.90872024      15.09701896
Li       5.56558287       8.32159749      20.03733624
Li       3.24203597       6.33215019       0.09202237
Li       7.64584539       0.99472365       0.09202237
Li       3.24203597       6.33215019       9.97265694
Li       1.16177345      13.65902403      20.03733624
Li       5.56558287       8.32159749      10.15670167
Li       1.16177345      13.65902403      10.15670167
Li       7.64584539       0.99472365       9.97265694
Ge       7.76237652       9.72426052      19.05974770
Ge       1.04524232       4.92948716       1.06961091
Ge       5.44905174       2.39738668       1.06961091
Ge       1.04524232       4.92948716       8.99506839
Ge       3.35856710      12.25636100      19.05974770
Ge       7.76237652       9.72426052      11.13429022
Ge       3.35856710      12.25636100      11.13429022
Ge       5.44905174       2.39738668       8.99506839
Ge       7.79165587       7.12726928      15.09701896
Ge       1.01596297       7.52647840       5.03233965
Ge       5.41977239      14.45414312       5.03233965
Ge       3.38784645       0.19960456      15.09701896
Ge       7.69990611      11.02323964       7.33013311
Ge       1.10771273       3.63050804      12.79922550
Ge       5.51152215       3.69636580      12.79922550
Ge       1.10771273       3.63050804      17.39481242
Ge       3.29609669      10.95738188       7.33013311
Ge       7.69990611      11.02323964       2.73454619
Ge       3.29609669      10.95738188       2.73454619
Ge       5.51152215       3.69636580      17.39481242
Ge       7.66039240      13.03995463       8.81652300
Ge       1.14722644       1.61379305      11.31283561
Ge       5.55103586       5.71308079      11.31283561
Ge       1.14722644       1.61379305      18.88120230
Ge       3.25658298       8.94066689       8.81652300
Ge       7.66039240      13.03995463       1.24815631
Ge       3.25658298       8.94066689       1.24815631
Ge       5.55103586       5.71308079      18.88120230
Ge       7.75480268      12.23170006      19.00601318
Ge       1.05281616       2.42204762       1.12334543
Ge       5.45662558       4.90482622       1.12334543
Ge       1.05281616       2.42204762       8.94133388
Ge       3.35099326       9.74892146      19.00601318
Ge       7.75480268      12.23170006      11.18802473
Ge       3.35099326       9.74892146      11.18802473
Ge       5.45662558       4.90482622       8.94133388
Ge       5.52153553      10.91071541      15.09701896
Ge       3.28608331       3.74303227       5.03233965
Ge       7.68989273       3.58384157       5.03233965
Ge       1.11772611      11.06990611      15.09701896
Ge       5.56673368       8.36239001      15.09701896
Ge       3.24088516       6.29135767       5.03233965
Ge       7.64469458       1.03551617       5.03233965
Ge       1.16292426      13.61823151      15.09701896
Ge       7.85400949       8.93961007       8.72688757
Ge       0.95360935       5.71413761      11.40247104
Ge       5.35741877       1.61273623      11.40247104
Ge       0.95360935       5.71413761      18.79156687
Ge       3.45020007      13.04101145       8.72688757
Ge       7.85400949       8.93961007       1.33779174
Ge       3.45020007      13.04101145       1.33779174
Ge       5.35741877       1.61273623      18.79156687
Ge       3.31676755       7.17711400      15.09701896
Ge       5.49085129       7.47663368       5.03233965
Ge       1.08704187      14.50398784       5.03233965
Ge       7.72057697       0.14975984      15.09701896
