105
Lattice="12.041457648851686 0.0 6.952138815000001 4.013819216283896 11.352795145164864 6.952138815000001 0.0 0.0 13.90427763" Properties=species:S:1:pos:R:3 pbc="T T T"
Li       2.79069611       1.97332015      13.90427763
Li       6.64963007       2.18484543      16.29104422
Li      13.26458075       9.37947500      13.90427763
Li       2.63919049       4.78221737       9.33306560
Li       6.65903044      10.56786289      11.53377905
Li      13.83764576       7.87954370      20.85640949
Li       4.01382323       5.37426564       6.95214577
Li      10.76486646      10.56786289      13.90428458
Li       6.78712747       4.79922386      16.05289175
Li       9.11365348       0.87057774      15.78531088
Li      15.80491088      11.17575966      18.27582423
Li       9.38238269       9.45472132      20.85641645
Li       9.76789799       3.74638834      20.85640949
Li       8.02763442       8.30790737      13.90427068
Li       5.26558092       6.62659247      18.68831548
Li       1.26456177       0.89418020       6.95213881
Li       5.85562037       0.87057774      13.90428458
Li      10.65513266       5.23053925       9.35333804
Li       2.77266202       5.23053925      13.90428458
Li      12.04145364       1.81325709      20.85640949
Li      12.04145765       5.69422146      20.85641645
Li       2.63919049       4.78221737       4.57121203
Li       3.85867306       8.30224233      15.78531088
Li       5.40916727       9.37947500      18.43960272
Li       8.00280493       2.75557314      18.68831548
Li       6.78712747       4.79922386      11.75564961
Li       9.21423177       9.43863441      15.95951757
Li       9.11976653       6.44864876      15.79589898
Li       3.89696891       2.75557314      11.49075921
Li       7.83622742       5.54104955      18.34629111
Li       4.27643538       5.54104955      16.29104422
Li       2.81831119       1.99284695       9.02283336
Li       5.84339428       6.44864876      13.90428458
Li      14.66813305       7.96046643      25.40595170
Li      15.20049392      10.74837233      26.32802778
Li      10.50864833       4.79922386      13.90427068
Li       6.76307666       4.78221737       6.95213882
Li       8.00280493       2.75557314       9.12025368
Li       5.40916727       9.37947500       9.36895254
Li      10.64610959       1.97332015      18.43960272
Li       6.40484731       1.99284695       6.95214577
Li      11.14335757       7.87954370      22.41195750
Li      12.39457741      11.17575966      16.30686728
Li       4.27643538       5.54104955      11.51749714
Li      13.37099513       9.45472132      23.15924291
Li      11.97024045       5.54104955      11.84902378
Li      13.17823146       3.74638834      22.82536644
Li      13.55176550       6.62659247      13.90428458
Li      11.74114370       8.30224233      11.23436434
Li      12.04145364      10.41974297      20.85640949
Li       8.48311058       8.30224233       9.35333804
Li       5.72337306      10.74837233      20.85640949
Li      11.14335757       7.87954370      19.30086148
Li      13.37099513       9.45472132      18.55358998
Li       6.64963007       2.18484543      11.51749714
Li       6.65903044      10.56786289      16.27479011
Li      13.17823146       3.74638834      18.88745255
Li      12.18315349       2.75557314      16.27479011
Li      14.66813305       7.96046643      16.30686728
Li       3.85867306       8.30224233      12.02325829
Li      15.80491088      11.17575966      23.43699476
Li       8.48311058       8.30224233      18.45523112
Li       7.92487262      11.17575966      22.82536644
Li      10.78364311       2.18484543      13.90427068
Li      10.65513266       5.23053925      18.45523112
Li      10.64610959       1.97332015       9.36895254
Li       2.81831119       1.99284695       4.88145817
Li       7.83622742       5.54104955       9.46225025
Li       8.02764245       3.35965537      13.90428458
Li       7.92487262      11.17575966      18.88745255
Li      12.39457741      11.17575966      25.40595170
Li       5.38844794       0.89418020       9.33306560
Li       3.89696891       2.75557314      16.31780995
Li       5.65443972       9.43863441      13.90427068
Li      15.20049392      10.74837233      15.38479121
Li       4.01381922       2.83819879       6.95213882
Li      11.74114370       8.30224233      16.57420483
Li      12.18315349       2.75557314      11.53377905
Li       9.11365348       0.87057774      12.02325829
Li       5.38844794       0.89418020       4.57121203
Li       9.11976653       6.44864876      12.01267018
Li       6.78809480       7.96046643      20.85640949
Li       5.26558092       6.62659247       9.12025368
Li      11.97024045       5.54104955      15.95951757
Li       9.21423177       9.43863441      11.84902378
Sn       9.15534101       1.02040058       6.95214577
Sn      14.91824216      10.54879019      20.85641645
Sn       4.01382323       8.29160476       6.95214577
Sn       5.35695551       3.78793957      18.53002223
Sn       9.47079910       3.63546018      11.40465002
Sn       6.58447776       7.71733497      11.40465002
Sn      13.47984990       6.48040252      18.36504798
Sn      10.60306539      10.54879019      18.36504798
Sn       9.47079910       3.63546018      16.40390524
Sn       9.16467314       6.48040252      20.85641645
Sn       8.02763442      11.34176023      13.90427068
Sn      13.36899223       3.78793957      13.90427068
Sn       1.44306434       1.02040058      11.40483078
Sn      13.47984990       6.48040252      23.34778491
Sn      10.60306539      10.54879019      23.34778491
Sn       1.44306434       1.02040058       2.49946076
Sn       5.35695551       3.78793957       9.27851912
Sn       6.58447776       7.71733497      16.40390524
Sn      10.91395978       7.71733497      13.90427763
Sn       5.14131709       3.63546018      13.90427763
