108
Lattice="11.417621601272561 0.0 6.591966905000001 3.8058738670908543 10.764636879042447 6.591966905000001 0.0 0.0 13.18393381" Properties=species:S:1:pos:R:3 pbc="T T T"
Li       0.00000000       0.00000000       0.00000000
Li       6.13806390       1.86660956       6.59197350
Li       2.63978456       1.86660956       4.57224098
Li       3.80587767       5.16481895       6.59197350
Li       2.63978456       1.86660956       8.61170601
Li       5.11806306       8.90892113      17.50312237
Li       2.62437838       1.85571575      13.18393381
Li       5.11806306       8.90892113       8.86474525
Li      10.10543241       1.85571575      17.50312237
Li      12.59911708       8.90892113      13.18393381
Li      10.10543241       1.85571575       8.86474525
Li       2.53581570       4.48729271       8.79177218
Li       1.26575753       0.89502573       6.59196690
Li       2.53581570       4.48729271       4.39216163
Li       5.07593204       0.89502573       8.79177218
Li       6.34599020       4.48729271       6.59196691
Li       5.07593204       0.89502573       4.39216163
Li      12.61275734       3.56701313      21.84593653
Li      13.94036793       7.32206295      15.40637590
Li      15.13550366      10.70241728      22.07538971
Li       6.37212895       7.32206295      19.77590072
Li      11.55009646      10.70241728      24.14542553
Li      12.61275734       3.56701313      17.70586490
Li       9.02735013       3.56701313      19.77590071
Li       7.56726468      10.70241728      21.84593653
Li      15.13550366      10.70241728      17.47641172
Li       7.56726468      10.70241728      17.70586490
Li      11.55009646      10.70241728      15.40637590
Li      13.94036793       7.32206295      24.14542553
Li      11.34382571       5.31379076      11.14112282
Li      11.34382571       5.31379076      15.22674480
Li      10.16440823       1.97789438      13.18393381
Li       7.51483496       5.31379076       8.93045398
Li       8.79116521       8.92379786      11.14112282
Li       3.97658253       5.31379076      10.97326497
Li       7.51483496       5.31379076      17.43741364
Li       6.33541749       1.97789438      15.39460265
Li       5.25291278       8.92379786      13.18393381
Li       8.79116521       8.92379786      15.22674480
Li       6.33541749       1.97789438      10.97326497
Li       3.97658253       5.31379076      15.39460265
Li       7.83931616       7.98431417      17.56436174
Li       5.31027491       0.83110532      13.18393381
Li       7.83931616       7.98431417       8.80350588
Li       8.76248414       0.83110532      15.17706774
Li       2.55366525       4.72954009      13.18393381
Li      11.29152539       7.98431417      10.79663981
Li       3.70440166       7.98431417      11.19079988
Li      11.29152539       7.98431417      15.57122781
Li      10.14078898       4.72954009      17.56436174
Li      10.14078898       4.72954009       8.80350588
Li       3.70440166       7.98431417      15.17706774
Li       8.76248414       0.83110532      11.19079988
Li      11.46752803       2.69434555      11.02062825
Li      12.71650926       6.22699797      13.18392722
Li      11.46752803       2.69434555      15.34722618
Li       5.05936126       6.22699797       8.76307076
Li      10.10970641       9.91357392      13.18392722
Li       3.81038002       2.69434555      10.92636972
Li       7.55732374       2.69434555      17.60478368
Li       3.81038002       2.69434555      15.44148472
Li       6.36276269       9.91357392      11.02062825
Li       6.36276269       9.91357392      15.34722618
Li       7.55732374       2.69434555       8.76307076
Li       5.05936126       6.22699797      17.60478368
Li       7.61174773       5.38231844      13.18393381
Li      11.41762160       8.07347766      19.77590072
Li       3.80587387       2.69115922       6.59196691
Li       5.98241888       9.99511605      19.77590731
Li      14.13522867       9.99511605      24.48293424
Li      11.41762541       2.30857326      19.77590731
Li      14.13522867       9.99511605      15.06888038
Li       8.92182086       8.95587647      19.77590072
Li      12.66552197       8.95587647      21.93732756
Li      11.41762160       5.42628122      19.77590072
Li      12.66552197       8.95587647      17.61447387
Li      13.70020206       7.26646360      19.77590072
Li      10.27633137       7.26646360      17.79912805
Li      11.41762160      10.49451985      19.77590072
Li      10.27633137       7.26646360      21.75267338
Li       5.27319428       6.20911790      13.18392722
Li       8.78101875       6.20911790      15.20917062
Li       7.61174393       2.90190928      13.18392722
Li       8.78101875       6.20911790      11.15868382
Li      10.13403736       4.49055439      13.18393381
Li       6.35060292       4.49055439      10.99956692
Li       7.61174773       8.05761058      13.18393381
Li       6.35060292       4.49055439      15.36830070
Si       8.73557662       0.94824610       6.59196691
Si       1.34102249       0.94824610       2.32271909
Si       3.80587387       7.91989858       6.59196691
Si       1.34102249       0.94824610      10.86121472
Si       1.26905849       3.58821229       6.59221740
Si       5.07449849       3.58821229       8.78928921
Si       3.80601849       0.00040906       6.59221740
Si       5.07449849       3.58821229       4.39514559
Si       6.27325995       7.27522601      15.50226265
Si       4.93477217       3.48941087      13.18393381
Si       6.27325995       7.27522601      10.86560497
Si       8.95023551       3.48941087      15.50226265
Si      10.28872329       7.27522601      13.18393381
Si       8.95023551       3.48941087      10.86560497
Si      10.08187405       9.96250996      22.08948334
Si       8.74612650       6.18444536      19.77590072
Si      10.08187405       9.96250996      17.46231809
Si      12.75336915       6.18444536      22.08948334
Si      14.08911670       9.96250996      19.77590072
Si      12.75336915       6.18444536      17.46231809
