108
Lattice="12.268927067345828 0.0 7.083468345000002 4.089642355781943 11.567255369604556 7.083468345000002 0.0 0.0 14.16693669" Properties=species:S:1:pos:R:3 pbc="T T T"
Li       5.34282328       3.77794657       4.91288114
Li       2.83141072       7.72704226       9.26278947
Li      10.86204920       1.98962576      18.81362109
Li      10.95817215       4.83408326       9.35374828
Li       2.72708803       1.92834244       9.44348166
Li       5.49652022       9.57762961       9.52025229
Li       5.43144992       0.86021051      14.16692961
Li      12.33208750       8.72010270      11.73343947
Li      10.77367612       4.86636747      14.16692961
Li       9.55319597       0.86021051      11.78723842
Li       7.95612111       2.96378531       9.43330980
Li       8.17928062       2.95358299      14.16692961
Li       9.51337512       6.72697206      16.47764907
Li       8.21034146       8.72010270      18.98011093
Li      13.51325801       9.55531637      23.40564945
Li       8.22892888       0.09379887       4.90414722
Li       1.39088328       3.65261536      11.75785619
Li      10.87418726      10.64790148      23.66616525
Li      10.86204920       1.98962576       9.52025229
Li       7.95612111       2.96378531      18.90057775
Li      12.09002566       5.85399130      16.53970733
Li       0.13265164       0.09379887       4.58840162
Li       8.22892888       0.09379887       9.26278947
Li      13.51325801       9.55531637      19.09517479
Li       2.81375573       1.98962576      14.16693669
Li       6.60610563       7.72704226       7.08346835
Li       2.83141072       7.72704226       4.90414722
Li       6.92439022      10.69377721      11.99339568
Li       4.19142537       2.96378531      16.72702965
Li      13.66366688       6.70298157      23.66616525
Li       2.62149756       4.83408326      14.16692961
Li       6.90887821       1.97928463      16.36735946
Li       5.44632395       6.51317448       9.43330980
Li      15.05840668      10.64790148      21.25040504
Li       9.84376915       0.85742280       7.08346835
Li       3.99541291       8.72010270      16.54662080
Li       1.21257896       0.85742280       2.10024836
Li       6.88208287       4.86636747      11.92011720
Li       2.72708803       1.92834244       4.72345503
Li       6.92439022      10.69377721      16.34049187
Li       4.08964236       2.89181384       7.08346835
Li       9.48716052       3.65261536       7.08346835
Li       4.16904685       5.85399130      16.36735946
Li       5.34282328       3.77794657       9.25404138
Li      12.09002566       5.85399130      11.79418022
Li       4.19142537       2.96378531      11.60685789
Li       6.88208287       4.86636747      16.41374201
Li       8.27879389       5.85399130      18.74012302
Li      10.72010998       1.97928463      14.16694377
Li       1.58326823       3.77794657       7.08346126
Li      10.68908596      10.69377721      14.16694377
Li       9.78027745       9.55531637      21.25041212
Li       9.47944745       6.70298157      21.25040504
Li       4.08964236       5.78222805       7.08346835
Li       6.81475100       1.92834244       7.08346835
Li       5.44632395       6.51317448      18.90057775
Li       5.49652022       9.57762961      18.81362109
Li       6.90887821       1.97928463      11.96652808
Li      10.87418726      10.64790148      18.83464482
Li      12.26893116       6.03582855      21.25041212
Li      13.54481369       9.57762961      14.16693669
Li      12.39031992       2.96378531      16.34049187
Li       1.21257896       0.85742280      12.06668833
Li       3.99541291       8.72010270      11.78723842
Li       8.17928471       5.78362768      14.16693669
Li       0.00000000       0.00000000       0.00000000
Li      13.66366688       6.70298157      18.83464482
Li       8.17928062       8.53539677      14.16692961
Li       8.21034146       8.72010270       9.35374828
Li       9.54920448       9.44725507      11.79418022
Li       1.39088328       3.65261536       2.40908050
Li       4.08963827       0.23340408       7.08346126
Li       3.90734655       0.09379887      11.75785619
Li      10.95817215       4.83408326      18.98011093
Li       5.43945744       9.44725507      14.16694377
Li       9.55319597       0.86021051      16.54662080
Li       3.90734655       0.09379887       2.40908050
Li       8.27879389       5.85399130       9.59376452
Li      13.64521850       6.51317448      14.16694377
Li       9.54920448       9.44725507      16.53970733
Li      12.39031992       2.96378531      11.99339568
Li      12.33208750       8.72010270      16.60041974
Li      12.26892707       8.67544153      21.25040504
Li       9.51337512       6.72697206      11.85621015
Li       0.13265164       0.09379887       9.57853507
Li       4.16904685       5.85399130      11.96652808
Li       5.51109162       6.72697206      14.16692961
Li       4.08964236       8.99498696       7.08346835
Pb      12.26893116       3.05893755      21.25041212
Pb       5.30403712       3.75052061      14.16693669
Pb       8.17928880       0.00881425      14.16694377
Pb       9.61690851       3.75052061      16.65697415
Pb      10.90156332       7.70856935       9.45182599
Pb       5.52195780       0.86621392       4.60262523
Pb       6.97363770      10.54761338      21.25041212
Pb       1.22501147       0.86621392       7.08346835
Pb       6.74166091       7.81673476      11.67689923
Pb       5.52195780       0.86621392       9.56431146
Pb       2.73473975       7.70856935      14.16694377
Pb       9.61690851       3.75052061      11.67689923
Pb       2.65732691       4.91741377       4.60262523
Pb      11.05453231       7.81673476      14.16693669
Pb       6.95427324       4.91741377       7.08346835
Pb       6.74166091       7.81673476      16.65697415
Pb       2.65732691       4.91741377       9.56431146
Pb      14.91657789      10.54761338      16.66455346
Pb      10.90156332       7.70856935      18.88206156
Pb      14.91657789      10.54761338      25.83627078
