12
Lattice="6.19327088 0.0 3.792284679722256e-16 -3.0966349223284144 5.363527777058064 3.7922833877198827e-16 0.0 0.0 10.18371546" Properties=species:S:1:pos:R:3 pbc="T T T"
Li       1.55832917       0.89970132       7.63778660
Li      -1.53830599       4.46382646       2.54592887
Li       0.00000014       1.79940269       2.54592887
Li       3.09663581       3.56412508       7.63778660
Li       4.63494195       0.89970132       7.63778660
Li       0.00000000       0.00000000       0.00000000
Li       1.53830679       4.46382646       2.54592887
Li       0.00000000       0.00000000       5.09185773
Ca       3.09663561       1.78784259       0.63332211
Ca       0.00000035       3.57568518       5.72517984
Ca       0.00000035       3.57568518       9.55039335
Ca       3.09663561       1.78784259       4.45853562
