6
Lattice="4.740142368765782 0.0 3.5589297766091175 1.7783163966313233 4.393920853820727 3.5589297766091175 0.0 0.0 5.92747196" Properties=species:S:1:pos:R:3 pbc="T T T"
Li       1.57366256       0.00000000       5.14114829
Li       3.75685657       1.45872175       3.55892978
Li       1.18793963       2.93519911       4.34525345
Li       3.25922938       2.19696043       6.52266576
Mg       5.42904172       3.65957361      10.86509122
Mg       1.08941704       0.73434725       2.18024030
