3
Lattice="3.988840686185414 0.0 2.3029581882289585 1.329612889464791 3.760715007956804 2.302958188668791 0.0 0.0 4.60591536" Properties=species:S:1:pos:R:3 pbc="T T T"
Li       1.32961339       0.94017875       2.30295793
Li       3.98884018       2.82053626       6.90887380
Te       0.00000000       0.00000000       0.00000000
