160
Lattice="12.660346 0.0 7.752226102498998e-16 -7.804423610695656e-16 12.745591 7.804423610695656e-16 0.0 0.0 22.882369" Properties=species:S:1:pos:R:3 pbc="T T T"
Li       9.87267707       6.91812836      18.43751459
Li       0.16634429       3.14404415      19.47895985
Li       1.51096165       5.34315568      11.01884462
Li       2.78766893      12.20025814       6.99633009
Li      10.34262912       0.05618257       7.21261424
Li       4.01245612       6.31661293       7.21261424
Li       3.54250407      12.20025814      18.43751459
Li       2.31771688      12.68940843      15.66977764
Li       6.16382871       3.14404415       8.03777535
Li       8.64788988       6.42897807      15.66977764
Li      12.49400171       3.22875135       8.03777535
Li      10.12179470       4.26912296      19.41051868
Li      10.12179470      10.64191846      14.91303482
Li      11.14938435       1.02963982      22.46002912
Li       2.06658626       9.51119335      21.18259798
Li      10.34262912       6.42897807       4.22857026
Li       2.53855130       8.47646804       3.47185032
Li       8.39675926       3.23439765      13.14095552
Li       3.79162170       2.10367254      19.41051868
Li       3.79162170       8.47646804      14.91303482
Li       2.31771688       6.31661293      18.65377586
Li       6.49651729       3.22875135      19.47895985
Li       3.54250407       5.82746264      15.88603891
Li       8.64788988       0.05618257      18.65377586
Li       2.53855130       2.10367254       7.96933418
Li       6.49651729       9.60154685      14.84459365
Li       0.16634429       9.51683965      14.84459365
Li       4.01245612      12.68940843       4.22857026
Li       2.78766893       5.82746264       4.44485441
Li       8.39675926       9.60719315      21.18259798
Li       4.81921135       5.34315568      22.46002912
Li       9.87267707       0.54533286      15.88603891
Li       4.26358674       3.13839785       1.69977102
Li       9.11784193       0.54533286       4.44485441
Li       8.86872430      10.64191846       3.47185032
Li       4.81921135      11.71595118      11.86352438
Li      11.14938435       7.40243532      11.86352438
Li      12.49400171       9.60154685       3.40340915
Li       7.84113465       7.40243532       0.42233988
Li       2.06658626       3.13839785      13.14095552
Li       7.84113465       1.02963982      11.01884462
Li       4.26358674       9.51119335       9.74141348
Li       9.11784193       6.91812836       6.99633009
Li       8.86872430       4.26912296       7.96933418
Li       1.51096165      11.71595118       0.42233988
Li      10.59375974       9.60719315       9.74141348
Li       6.16382871       9.51683965       3.40340915
Li      10.59375974       3.23439765       1.69977102
As       1.96712658      10.85932001       4.81275714
As       0.32528227       4.93611248       3.00713229
As       6.65545527       7.80947852       8.43405221
As       8.11106589       4.73042413      17.76646623
As      11.21544603       3.11010264      16.01573618
As      11.50816589      10.75576208      22.01574504
As      12.49677433       0.17846377      18.05441796
As      12.33506373       1.43668302      14.44831679
As       4.41533365       6.77846217      11.68664367
As       1.06822935       3.00108960      15.87036449
As       7.39840235       3.37170590      15.87036449
As      10.87945311      11.10321963       5.11590277
As       6.16660133       6.19433173      18.05441796
As       0.16357167       6.19433173       6.61323346
As      10.82540609       3.63106593      21.84328062
As       6.67164785       5.72302527       7.16117467
As       8.29729958       1.88627099       6.62842736
As      12.33506373       7.80947852      19.87523671
As       5.98869815       0.64977023      18.60235917
As       1.78089289       1.64237137      17.76646623
As       2.12283618       3.34738731      21.85838299
As      10.69321942       1.88627099      18.06961186
As       6.49374467       0.17846377       6.61323346
As       3.31623837       7.06298200      21.12818371
As       6.49374467       6.55125927       4.82795104
As       4.88527303       9.63548836      18.30781732
As       1.44489997       9.63548836       6.86663282
As      10.53750982       3.02540819      10.41719849
As       7.29708161       5.22320692      21.32337032
As      11.69343739       5.22320692       9.88218582
As       0.34147485       7.02256573       4.28000983
As       0.96690861       1.14958858      21.32337032
As       2.12283618       9.72018281      12.46517051
As       5.36326439       1.14958858       9.88218582
As       4.36304642       4.48652451      18.06961186
As       6.67164785      12.09582077       4.28000983
As       2.75385314      12.27794252      21.00615204
As      10.87945311       4.73042413       6.32528173
As       5.26194365       9.37388510       7.01200451
As       3.01393463       0.69018650       1.75418529
As       5.36326439       7.52238408       1.55899868
As      10.74550665       5.96712883      22.63690983
As       4.54928011       8.01516687       5.11590277
As       2.75385314       5.90514702      13.31740146
As       8.24501235       5.96712883      11.19572533
As      12.49677433       6.55125927      16.26913554
As      12.31887115      12.09582077      15.72119433
As      10.53750982       9.39820369       1.02398601
As       7.77507297       9.48289814       6.86663282
As       4.20733682       9.72018281       1.02398601
As       4.54928011       1.64237137       6.32528173
As       5.17799289       8.36262442      22.01574504
As       6.16660133      12.56712723      16.26913554
As       4.36304642      10.85932001      16.25394164
As       3.01393463       7.06298200       9.68699921
As      10.69321942       8.25906649      16.25394164
As       8.45300918       3.02540819      21.85838299
As       1.91483935       6.77846217       0.24545917
As       9.90649286       6.84044398       9.56496754
As       0.96690861       7.52238408      13.00018318
As       8.45300918       9.39820369      12.46517051
As       0.34147485       0.64977023       7.16117467
As       9.90649286       0.46764848       1.87621696
As      10.82540609      10.00386143      12.48027288
As      11.69343739      11.59600242       1.55899868
As       1.91483935       0.40566667      11.19572533
As       4.88527303       3.26269286      16.01573618
As       9.34410763       5.68260900       1.75418529
As       6.65545527       1.43668302       3.00713229
As       3.31623837       0.69018650      13.19536979
As       0.32528227      11.30890798       8.43405221
As       9.64641137      12.05540450      21.12818371
As       5.98869815       7.02256573      15.72119433
As       7.48235311      10.75576208      10.57456054
As      12.31887115       5.72302527      18.60235917
As      11.59211665       9.74450140       7.01200451
As       7.48235311       4.38296658       0.86662396
As       1.83493991       9.11452507       1.03908838
As       9.34410763      12.05540450       9.68699921
As       8.16511291       3.63106593      10.40209612
As      11.21544603       9.48289814      18.30781732
As       8.11106589      11.10321963      16.55708727
As       8.29729958       8.25906649       4.81275714
As      10.74550665      12.33992433      11.68664367
As       9.64641137       5.68260900      13.19536979
As       6.00489073       4.93611248      14.44831679
As       5.17799289       1.98982892      12.30780846
As       1.06822935       9.37388510      18.45318901
As       4.49523309       9.11452507      12.48027288
As       7.39840235       9.74450140      18.45318901
As       8.16511291      10.00386143       1.03908838
As       1.44489997       3.26269286       4.57455168
As       1.78089289       8.01516687      16.55708727
As       4.41533365       0.40566667      22.63690983
As       1.96712658       4.48652451       6.62842736
As       3.57631986      12.27794252       9.56496754
As      11.59211665       3.37170590       4.42917999
As       7.77507297       3.11010264       4.57455168
As       4.20733682       3.34738731      10.41719849
As       7.29708161      11.59600242      13.00018318
As       3.57631986       5.90514702       1.87621696
As       9.08402614       6.84044398      21.00615204
As       9.08402614       0.46764848      13.31740146
As      11.50816589       4.38296658      12.30780846
As       1.15218011       1.98982892       0.86662396
As       1.83493991       2.74172957      10.40209612
As       0.16357167      12.56712723       4.82795104
As       6.00489073      11.30890798      19.87523671
As       1.15218011       8.36262442      10.57456054
As       8.24501235      12.33992433       0.24545917
As       5.26194365       3.00108960       4.42917999
As       4.49523309       2.74172957      21.84328062
