4
Lattice="3.8049418011861675 0.0 2.1967840005029147 1.2683139284595113 3.5873351161577123 2.1967839980172226 0.0 0.0 4.39356901" Properties=species:S:1:pos:R:3 pbc="T T T"
Li       3.80494180       2.69050134       6.59035276
Li       2.53662786       1.79366756       4.39356850
Li       1.26831393       0.89683378       2.19678425
Au       0.00000000       0.00000000       0.00000000
