4
Lattice="4.049243933464174 0.0 2.3378320750000006 1.3497479778213914 3.8176637920413423 2.3378320750000006 0.0 0.0 4.67566415" Properties=species:S:1:pos:R:3 pbc="T T T"
Li       0.00000000       0.00000000       0.00000000
Li       2.69949596       1.90883190       4.67566415
Li       1.34975338       0.95441977       2.33784143
Cd       4.04923853       2.86324403       7.01348687
