17
Lattice="6.872529595299758 0.0 2.63084572588176 1.8099175484285845 6.629921681751703 2.63084572588176 0.0 0.0 7.35887337" Properties=species:S:1:pos:R:3 pbc="T T T"
Li       1.75263121       3.47544194       2.54757608
Li       1.01556379       0.77548510       4.47300917
Li       3.81431982       0.77548510       2.54757608
Ga       3.72866663       1.17455083       5.41988670
Ga       4.30554453       3.28771630       3.91291494
Ga       2.11505225       3.28771630       5.41988670
Ga       5.05962578       5.50994910       7.35453188
Ga       4.49179952       3.42994072       8.83785817
Ga       6.64792139       3.42994072       7.35453188
Ga       0.71800217       0.54826688       1.04366808
Ga       8.05631907       6.15180992      11.71044238
Ga       5.20021255       1.25598158       7.55888517
Ga       6.13654561       4.68586979       5.11291265
Ga       2.58114792       4.68586979       7.55888517
Ga       3.54612780       5.42975589       5.15455305
Ga       2.60737126       1.99099021       7.60685640
Ga       6.17197127       1.99099021       5.15455305
