8
Lattice="5.453992570700518 0.0 -2.782820686927708 -2.0455199601745555 5.0558760916169545 -2.782820686927708 0.0 0.0 6.12291809" Properties=species:S:1:pos:R:3 pbc="T T T"
Li       2.72699629       0.00000000       1.67004870
Li      -1.02275998       2.52793805       1.67004870
Li       1.70423631       2.52793805      -2.78282069
Mg       1.70423631       2.52793805       0.27863836
Mg       0.00000000       0.00000000       3.06145904
Mg       2.72699629       0.00000000      -1.39141034
Mg      -1.02275998       2.52793805      -1.39141034
Mg       0.00000000       0.00000000       0.00000000
