8
Lattice="5.43662444 0.0 3.328972359306136e-16 -2.718312657168591 4.708254623475917 3.328972359306136e-16 0.0 0.0 4.465321" Properties=species:S:1:pos:R:3 pbc="T T T"
Li      -0.00000015       1.64406602       1.11633025
Li       1.29450885       3.88622162       1.11633025
Li      -1.29450957       3.88622162       1.11633025
Li       2.71831194       3.06418861       3.34899075
Li       1.42380293       0.82203301       3.34899075
Li       4.01282135       0.82203301       3.34899075
Ni      -0.00000029       3.13883642       3.34899075
Ni       2.71831207       1.56941821       1.11633025
