4
Lattice="3.6324215052607385 0.0 -3.997666102276383 -0.5425169773448855 3.591679456907765 -3.997666102276383 0.0 0.0 5.40146464" Properties=species:S:1:pos:R:3 pbc="T T T"
Li       2.58868688       0.89791986      -1.29693378
Li       0.50121764       2.69375959      -1.29693378
Li       1.54495226       1.79583973      -3.99766610
Nb       0.00000000       0.00000000       0.00000000
