8
Lattice="6.70399973 0.0 4.10501590541461e-16 -3.3519995995129857 5.805834226423008 4.10501590541461e-16 0.0 0.0 5.079711" Properties=species:S:1:pos:R:3 pbc="T T T"
Li       5.21471629       0.85983824       3.80978325
Li       1.48927682       0.85983824       3.80978325
Li       3.35199670       4.08616355       3.80978325
Li      -1.86271615       4.94599598       1.26992775
Li       1.86272331       4.94599598       1.26992775
Li       0.00000343       1.71967068       1.26992775
Pm       3.35199995       1.93527808       1.26992775
Pm       0.00000018       3.87055615       3.80978325
