4
Lattice="4.461874164561814 0.0 2.5760642500000004 1.4872913881872714 4.206695304750293 2.5760642500000004 0.0 0.0 5.1521285" Properties=species:S:1:pos:R:3 pbc="T T T"
Li       1.48729139       1.05167383       2.57606425
Li       4.46187416       3.15502148       7.72819275
Li       2.97458278       2.10334765       5.15212850
Pm       0.00000000       0.00000000       0.00000000
