4
Lattice="3.7539770891316544 0.0 2.1673597711744534 1.2513253559784687 3.539283273648453 2.167359765144697 0.0 0.0 4.3347185" Properties=species:S:1:pos:R:3 pbc="T T T"
Li       2.50265122       1.76964164       4.33471902
Li       1.25132561       0.88482082       2.16735951
Li       3.75397683       2.65446246       6.50207853
Pd       0.00000000       0.00000000       0.00000000
