8
Lattice="5.2944518 0.0 3.241916725054971e-16 -2.647226677048645 4.585129309282916 3.241916725054971e-16 0.0 0.0 4.43693367" Properties=species:S:1:pos:R:3 pbc="T T T"
Li       0.00000240       1.60925719       1.10923342
Li       1.25356886       3.78049840       1.10923342
Li      -1.25356479       3.78049840       1.10923342
Li       2.64722272       2.97587212       3.32770025
Li       1.39365627       0.80463091       3.32770025
Li       3.90078991       0.80463091       3.32770025
Rh      -0.00000052       3.05675287       3.32770025
Rh       2.64722564       1.52837644       1.10923342
