8
Lattice="6.23145583 0.0 3.8156662181188065e-16 -3.115727742635185 5.396599150855513 3.8156662181188065e-16 0.0 0.0 4.932666" Properties=species:S:1:pos:R:3 pbc="T T T"
Li       0.00000317       1.73630721       1.23316650
Li       1.61204349       4.52844285       1.23316650
Li      -1.61203697       4.52844285       1.23316650
Li       3.11572492       3.66029194       3.69949950
Li       1.50368459       0.86815630       3.69949950
Li       4.72776506       0.86815630       3.69949950
Sc       0.00000011       3.59773277       3.69949950
Sc       3.11572797       1.79886638       1.23316650
