4
Lattice="4.007930650230788 0.0 2.3139789005875646 1.3359765488367241 3.7787127868090997 2.3139788984230014 0.0 0.0 4.62795882" Properties=species:S:1:pos:R:3 pbc="T T T"
Li       2.67195360       1.88935639       4.62795831
Li       1.33597680       0.94467820       2.31397915
Li       4.00793040       2.83403459       6.94193746
Sb       0.00000000       0.00000000       0.00000000
