8
Lattice="4.67231893 0.0 2.8609702111100433e-16 -2.336158461069507 4.046346232052854 2.8609695559240053e-16 0.0 0.0 8.30315915" Properties=species:S:1:pos:R:3 pbc="T T T"
Li       0.00000067       2.69756415       7.57771770
Li       2.33615980       1.34878208       3.42613812
Li       0.00000000       0.00000000       2.07578979
Li       0.00000000       0.00000000       6.22736936
Li       0.00000067       2.69756415       4.87702103
Li       2.33615980       1.34878208       0.72544145
Sb       2.33615980       1.34878208       6.22736936
Sb       0.00000067       2.69756415       2.07578979
