8
Lattice="6.47455466 0.0 3.9645213201367896e-16 -3.237277986659764 5.6071284346281764 3.9645213201367896e-16 0.0 0.0 5.015371" Properties=species:S:1:pos:R:3 pbc="T T T"
Li       0.00000304       1.72691145       1.25384275
Li       1.74172911       4.74366991       1.25384275
Li      -1.74172374       4.74366991       1.25384275
Li       3.23727364       3.88021698       3.76152825
Li       1.49554757       0.86345853       3.76152825
Li       4.97900042       0.86345853       3.76152825
Tm      -0.00000044       3.73808562       3.76152825
Tm       3.23727711       1.86904281       1.25384275
