8
Lattice="5.69645803 0.0 3.4880745464583686e-16 -2.8482405888139866 4.933270683409135 3.4880745464583686e-16 0.0 0.0 4.61222119" Properties=species:S:1:pos:R:3 pbc="T T T"
Li      -0.00000683       1.69849786       1.15305530
Li       1.37727372       4.08402422       1.15305530
Li      -1.37729858       4.08402422       1.15305530
Li       2.84822427       3.23477282       3.45916589
Li       1.47094372       0.84924647       3.45916589
Li       4.22551602       0.84924647       3.45916589
Zn      -0.00000772       3.28884712       3.45916589
Zn       2.84822516       1.64442356       1.15305530
