6
Lattice="5.05319898 0.0 3.094191978155835e-16 -2.7968028471643866e-16 4.567525672073988 2.6370613110925625 0.0 0.0 5.27412562" Properties=species:S:1:pos:R:3 pbc="T T T"
Li      -0.00000000       4.56257817       2.63991775
Li       2.52659949       1.52250856       6.15314078
Li      -0.00000000       1.52746367       2.63992314
Li       2.52659949       0.00000000       3.51608375
Li      -0.00000000       3.04501711       5.26840822
Mg       2.52659949       3.04501711       3.51608275
