13
Lattice="13.26871901 0.0 8.124747132191069e-16 -6.634359971740894 12.743157791813237 8.797082223394764e-16 0.0 0.0 43.29706181" Properties=species:S:1:pos:R:3 pbc="T T T"
Li       0.00000000       0.00000000      25.91135568
Li       0.00000000       0.00000000      17.38570613
Li       4.08660594       7.79652823       0.00000000
Li       2.54775309       4.94662956       0.00000000
Li      -2.54775332       4.94662956       0.00000000
Li       9.18211236       7.79652823       0.00000000
Li       0.00000000       0.00000000       0.00000000
Al       0.00000000       0.00000000      34.79567766
Al       0.00000000       0.00000000       8.50138415
Al       5.39120555      10.13829170       0.00000000
Al       1.24315349       2.60486609       0.00000000
Al      -1.24315368       2.60486609       0.00000000
Al       7.87751272      10.13829170       0.00000000
