60
Lattice="7.527418636994634 0.0 0.0021707705923375525 -3.764129620887692 6.519152095203928 -0.003245511006806641 0.0 0.0 17.84231328" Properties=species:S:1:pos:R:3 pbc="T T T"
Li       2.51122569       2.89638470      11.89304768
Li       5.01918974       2.89860499      17.84275607
Li       3.76412064       0.72754513       5.95005210
Li      -1.23529635       5.05921126      11.89284300
Li       1.24127971       5.06222943       0.00023404
Li      -0.00014944       2.92039838       5.94549353
Li       1.24566923       0.71036756       2.40460663
Li       3.75694391       5.08511732       8.35592468
Li       6.28959201       0.72089325      14.30615450
Li       6.28210189       0.71091921       9.48795242
Li       3.76928726       5.08624468       3.53688373
Li       1.23761110       0.72363534      15.43815355
Li       1.16538972       0.58960639       5.14875629
Li       3.68792179       5.21616669      11.10143652
Li       6.43301891       0.71634523      17.05302310
Li       6.36112569       0.58633326       6.74195797
Li       3.83833107       5.21588597       0.79002728
Li       1.09372103       0.71370256      12.69373454
Li       2.49941770       2.88334568      14.57854851
Li       5.00539615       2.91620468       2.68193069
Li       3.78490212       0.72572166       8.63457123
Li       5.02910973       2.87773875      15.16292283
Li       2.52085947       2.91497256       9.20790872
Li       3.74634925       0.72331870       3.26510996
Li       2.42032263       2.74215812      17.12704041
Li       4.92418636       3.05412947       5.23786252
Li       3.94230579       0.71861148      11.17774009
Li       5.11031820       2.73533706      12.60848696
Li       2.59412025       3.05533088       6.66454437
Li       3.58505143       0.72542921       0.71603707
Li      -0.00765496       2.87372582       8.63545323
Li      -1.27869819       5.08881368      14.58091511
Li       1.27765094       5.07644307       2.68267692
Li       0.00441884       2.86777142       3.25789858
Li       1.27110923       5.08760301      15.15721442
Li      -1.27914606       5.07749702       9.20447913
Li      -0.08532967       2.73120874      11.18797726
Li      -1.35820294       5.23137854      17.12680424
Li       1.44186362       5.07747140       5.23622089
Li       0.08558940       2.72597119       0.71087527
Li       1.35437290       5.22954373      12.60347052
Li      -1.44162845       5.08121196       6.64902531
Si       1.34167311       0.80831247       7.74839200
Si       3.79230245       4.95385061      13.69488167
Si       6.15780288       0.75682369       1.80364097
Si       6.18642176       0.80748395       4.14841358
Si       3.73414912       4.95485658      16.03965767
Si       1.37049013       0.75823189      10.09415136
Si       2.53862164       2.95613729       1.81080880
Si       5.05441459       2.84312159       7.75949620
Si       3.69922824       0.72042915      13.70615784
Si       4.98907812       2.95612484      10.08477383
Si       2.47362832       2.84364847       4.13667421
Si       3.82913263       0.72103100      16.03193422
Si       0.03026768       3.01284811      13.70363671
Si      -1.17007950       4.98621879       1.80619779
Si       1.13882362       5.04022651       7.75496769
Si      -0.03077175       3.01282836      16.03304195
Si       1.17023974       4.98567685      10.08462071
Si      -1.13984476       5.03871446       4.13554575
