4
Lattice="3.692286488944313 0.0 -3.3088226947710457 -0.7365699214635436 3.618071899124714 -3.3088226947710457 0.0 0.0 4.95795191" Properties=species:S:1:pos:R:3 pbc="T T T"
Li       0.00000000       0.00000000       0.00000000
Ag       2.58506869       0.90451797      -0.82984839
Ag       0.37064492       2.71355031      -0.82984839
Ag       1.47785828       1.80903595      -3.30882269
