12
Lattice="5.873152574709026 0.0 3.390866220000001 1.957717524903009 5.537261350026645 3.390866220000001 0.0 0.0 6.78173244" Properties=species:S:1:pos:R:3 pbc="T T T"
Li       6.85201134       4.84510368      11.86803177
Li       3.91543505       4.84510368      10.17259866
Li       5.87315257       2.07647301      10.17259866
Li       6.85201134       4.84510368       8.47716555
Al       4.71047980       3.33081221       8.15879034
Al       2.32534555       3.33081221       6.78173244
Al       3.91543505       1.08208608       6.78173244
Al       3.54780702       0.82213380       3.39086622
Al       1.16267278       0.82213380       2.01380832
Al       4.71047980       3.33081221       5.40467454
Al       1.95771752       3.07085994       3.39086622
Al       1.16267278       0.82213380       4.76792412
