12
Lattice="4.26367615356822 0.0 2.4616345750000006 1.42122538452274 4.019832427961951 2.4616345750000006 0.0 0.0 4.92326915" Properties=species:S:1:pos:R:3 pbc="T T T"
Li       1.42122538       1.00495811       2.46163458
B        1.72026826       1.21641335       4.92326915
B        3.40354202       1.21641335       5.89510771
B        2.28135951       2.80341908       5.89510771
B        3.96463328       2.80341908       4.92326915
B        2.28135951       2.80341908       3.95143059
B        3.40354202       1.21641335       3.95143059
B        3.08558264       3.43139328       7.38490373
B        4.26367615       1.76531745       7.38490373
B        4.85272291       3.43139328       8.40516264
B        4.85272291       3.43139328       6.36464481
B        0.00000000       0.00000000       0.00000000
