10
Lattice="7.205379839588632 0.0 4.160027990000001 2.401793279862878 6.79329726079728 4.160027990000001 0.0 0.0 8.32005598" Properties=species:S:1:pos:R:3 pbc="T T T"
Li       0.00000000       0.00000000       0.00000000
Li       2.40179328       1.69832432       4.16002799
Ca       3.74520273       2.64825824       6.48688141
Ca       3.74520273       2.64825824      10.15323887
Ca       4.80358896       5.64182658       8.32006014
Ca       8.26376367       5.84336333      10.64690108
Ca       8.26376367       5.84336333      14.31325854
Ca       6.92036143       2.64825824       8.32006014
Ca       7.20537744       2.84979499      12.48007981
Ca       5.08860497       5.84336333      12.48007981
