8
Lattice="6.91493716 0.0 4.2341778296495446e-16 -3.4574677365297104 5.988511733110739 4.2341778296495446e-16 0.0 0.0 5.496054" Properties=species:S:1:pos:R:3 pbc="T T T"
Li       3.45746886       1.99617058       1.37401350
Li       0.00000056       3.99234116       4.12204050
Er       5.16639863       1.00951935       4.12204050
Er       1.74853190       1.00951935       4.12204050
Er       3.45746568       3.96947901       4.12204050
Er      -1.70892921       4.97899238       1.37401350
Er       1.70893753       4.97899238       1.37401350
Er       0.00000374       2.01903272       1.37401350
