4
Lattice="4.8060143349210875 0.0 -4.821228693029418 -0.8209012351470507 4.735387518419271 -4.821228693029418 0.0 0.0 6.80749733" Properties=species:S:1:pos:R:3 pbc="T T T"
Li       0.00000000       0.00000000       0.00000000
Eu       3.39928544       1.18384688      -1.41748003
Eu       0.58582766       3.55154064      -1.41748003
Eu       1.99255655       2.36769376      -4.82122869
