8
Lattice="7.59723568 0.0 4.651965178940033e-16 -3.798617516173255 6.579399284378992 4.651965178940033e-16 0.0 0.0 6.223097" Properties=species:S:1:pos:R:3 pbc="T T T"
Li       3.79861795       2.19313309       1.55577425
Li       0.00000022       4.38626619       4.66732275
Eu       5.66906872       1.11322778       4.66732275
Eu       1.92816707       1.11322778       4.66732275
Eu       3.79861805       4.35294373       4.66732275
Eu      -1.87045055       5.46617150       1.55577425
Eu       1.87045109       5.46617150       1.55577425
Eu       0.00000011       2.22645556       1.55577425
