12
Lattice="5.98785606327404 0.0 3.4570903100000008 1.9959520210913468 5.645404836146745 3.4570903100000008 0.0 0.0 6.91418062" Properties=species:S:1:pos:R:3 pbc="T T T"
Li       6.98583207       4.93972923      12.09981609
Li       3.99190404       4.93972923      10.37127093
Li       5.98785606       2.11702681      10.37127093
Li       6.98583207       4.93972923       8.64272578
Ga       4.79073194       3.38755904       8.29779113
Ga       2.39424824       3.38755904       6.91418062
Ga       3.99190404       1.12813254       6.91418062
Ga       3.59360782       0.84649458       3.45709031
Ga       1.19712412       0.84649458       2.07347980
Ga       4.79073194       3.38755904       5.53057011
Ga       1.99595202       3.10592109       3.45709031
Ga       1.19712412       0.84649458       4.84070082
