12
Lattice="3.972680841705611 0.0 -0.6854664163268092 -0.11827363614255901 3.970920657901135 -0.6854666485980554 0.0 0.0 11.85473384" Properties=species:S:1:pos:R:3 pbc="T T T"
Li       1.47497111       0.49636508       2.62095022
Li       2.37943609       3.47455558       7.86285055
Li       1.75249911       2.82866714       4.22938571
Li       0.72976049       3.82139731      10.15675257
Li       2.10190810       1.14225351       6.25441507
Li       3.12464672       0.14952335       0.32704821
Ge       0.45223249       1.48909525       8.54831708
Ge       3.40217471       2.48182541       1.93548369
Ge       1.12200917       2.17911836       0.57534104
Ge       0.09927055       3.17184852       6.50270790
Ge       2.73239804       1.79180230       9.90845974
Ge       3.75513665       0.79907214       3.98109288
