16
Lattice="5.300758807653239 0.0 2.21223554766467 2.6503787793423625 6.881466097067809 1.106117886796591 0.0 0.0 7.45671242" Properties=species:S:1:pos:R:3 pbc="T T T"
Li       2.95055699       1.33248849       5.21664851
Li       7.82942113       6.64438700       4.71143185
Li       2.22987674       3.67781215       3.21510430
Li       1.80798276       2.10824456       7.95436442
Li       5.00058060       5.54897761       5.55841734
Li       0.12171645       0.23707910       6.06363400
Li       5.72126085       3.20365395       7.55996155
Li       6.14315483       4.77322154       2.82070143
Ge       0.72741744       1.09516241       3.61911711
Ge       2.80927171       0.38097482       2.35914137
Ge       4.97806458       3.05975823       4.61920674
Ge       4.40953409       2.34557063       2.25311098
Ge       7.22372015       5.78630368       7.15594874
Ge       5.14186588       6.50049127       8.41592449
Ge       2.97307301       3.82170787       6.15585912
Ge       3.54160350       4.53589546       8.52195487
