4
Lattice="5.116069 0.0 3.1326887625335e-16 -3.1326887625335e-16 5.116069 3.1326887625335e-16 0.0 0.0 5.116069" Properties=species:S:1:pos:R:3 pbc="T T T"
Li       2.55803450       2.55803450       2.55803450
La       2.55803450       0.00000000       0.00000000
La      -0.00000000       2.55803450       0.00000000
La       0.00000000       0.00000000       2.55803450
