6
Lattice="4.785468213071614 0.0 2.518179154318091 1.7374358343172716 4.4589261868693315 2.518179154318091 0.0 0.0 5.98507491" Properties=species:S:1:pos:R:3 pbc="T T T"
Li       2.00444893       4.06831627       4.01444788
Li       4.51845512       0.39060992       7.00698534
Mg       1.89503410       1.86627736       6.15894062
Mg       4.09595383       3.37078188       7.85503006
Mg       2.42695022       1.08814431       3.16640316
Mg       4.62786995       2.59264883       4.86249260
