6
Lattice="7.54030687 0.0 4.617106336467149e-16 -6.773374810407133 3.313249367541075 4.617106336467149e-16 0.0 0.0 4.89957718" Properties=species:S:1:pos:R:3 pbc="T T T"
Li       3.16122147       1.01364570       0.00000000
Li       0.74324314       1.57334553       2.44978859
Li       5.60163248       0.44875329       2.44978859
Mg      -6.31533127       3.20722406       0.00000000
Mg      -1.67515515       2.13314257       0.00000000
Mg      -3.98593660       2.66802907       2.44978859
