6
Lattice="5.40066097 0.0 3.3069510850952697e-16 -2.7291541039225704 4.660349427878121 3.3069510850952697e-16 0.0 0.0 5.05233229" Properties=species:S:1:pos:R:3 pbc="T T T"
Li       1.78231822       3.10919122       3.78924922
Li       0.88918865       1.55115821       1.26308307
Mg      -0.88181554       1.55809197       3.78924922
Mg       1.79012598       0.02642353       3.78924922
Mg       0.88138088       4.63392590       1.26308307
Mg       3.55332241       3.10225746       1.26308307
