6
Lattice="8.26247725 0.0 5.059308158620163e-16 -7.6674513203758305 3.0787530846812787 5.059308158620163e-16 0.0 0.0 5.02762197" Properties=species:S:1:pos:R:3 pbc="T T T"
Li       2.06311759       1.19814082       1.25690549
Li      -1.46809166       1.88061226       3.77071648
Mg      -3.24152935       2.22336187       1.25690549
Mg       7.38155029       0.17025542       1.25690549
Mg       3.83655528       0.85539121       3.77071648
Mg      -6.78652436       2.90849767       3.77071648
