4
Lattice="5.14858523482423 0.0 2.434626655002107 4.04213729608104 3.188895733617004 2.434626655002107 0.0 0.0 4.89945524" Properties=species:S:1:pos:R:3 pbc="T T T"
Li       5.82047980       2.01952601       6.10400794
Li       3.37024273       1.16936972       3.66470061
Mg       8.13015341       2.82091113       8.54316464
Mg       1.06056912       0.36798460       1.22554391
