8
Lattice="6.30618112 0.0 3.8614222617257354e-16 -3.153089635416381 5.461313584594301 3.8614222617257354e-16 0.0 0.0 5.10873809" Properties=species:S:1:pos:R:3 pbc="T T T"
Li       3.15309087       1.82043786       2.55436905
Mg       0.00000661       1.81964011       2.55436905
Mg       1.57724008       4.55148807       2.55436905
Mg      -1.57722592       4.55148807       2.55436905
Mg       4.71808099       0.91689022       0.00000000
Mg       1.58809413       0.91689022       0.00000000
Mg       3.15308802       3.62753861       0.00000000
Mg       0.00000062       3.64087572       0.00000000
