6
Lattice="5.3787019384242525 0.0 1.7519101813826479 4.341859995952629 3.174694681060691 1.7519101813826479 0.0 0.0 7.15659339" Properties=species:S:1:pos:R:3 pbc="T T T"
Li       1.53120012       0.50008353       1.63182222
Li       4.86028097       1.58734734       1.75191018
Li       8.18936181       2.67461116       9.02859154
Mg       1.69548724       0.55373901       5.52641802
Mg       4.86028097       1.58734734       5.33020688
Mg       8.02507469       2.62095567       5.13399573
