6
Lattice="3.17287353 0.0 1.9428247063069318e-16 -1.5864453163773413 2.7477841428174554 1.9428247063069318e-16 0.0 0.0 15.11872718" Properties=species:S:1:pos:R:3 pbc="T T T"
Li       1.58643391       0.91592805       0.00000000
Mg       0.00000000       0.00000000      12.64435063
Mg       1.58643391       0.91592805      10.09634376
Mg       0.00000000       0.00000000       7.55936359
Mg       1.58643391       0.91592805       5.02238342
Mg       0.00000000       0.00000000       2.47437655
