6
Lattice="8.10771355 0.0 4.964542723705561e-16 -7.47643400073215 3.136551233688024 4.964542723705561e-16 0.0 0.0 5.036497" Properties=species:S:1:pos:R:3 pbc="T T T"
Li       8.08581782       0.00440685       0.00000000
Li       2.89082665       1.04997934       0.00000000
Li      -5.73702496       2.78646820       2.51824850
Mg      -2.29509454       2.09372636       0.00000000
Mg      -0.46420655       1.72523178       2.51824850
Mg       4.60823088       0.70432513       2.51824850
