4
Lattice="4.849594196406055 0.0 -3.4579337000766794 -0.4262281615297255 2.998331734996169 -5.128762590057677 0.0 0.0 5.9561623" Properties=species:S:1:pos:R:3 pbc="T T T"
Li       3.81994419       1.49916587      -3.46486562
Mg       1.62677329       0.00000000       0.83801889
Mg       3.32052294       2.25144895      -0.49210606
Mg       1.10086820       0.74688279       3.81671100
