9
Lattice="3.9218817724738733 0.0 1.2944166558357617 1.2945463659962848 5.148862517905401 1.6320154885888527 0.0 0.0 5.55428816" Properties=species:S:1:pos:R:3 pbc="T T T"
Li       2.60821407       2.57443126       4.24036015
O        3.69778448       1.69732680       5.65835487
O        1.00360717       1.40305592       4.38284530
O        1.51864366       3.45153572       2.82236543
O        4.21282097       3.74580660       4.09787500
O        3.63534651       1.25223621       2.84368707
O        1.58108162       3.89662630       5.63703323
O        0.90117889       0.95139853       1.54635830
O        4.31524925       4.19746399       6.93436201
