9
Lattice="4.346982652351678 0.0 1.64903600119593 1.3767636255484426 5.110321761018507 2.044419383694879 0.0 0.0 5.67366871" Properties=species:S:1:pos:R:3 pbc="T T T"
Li       0.00000000       0.00000000       0.00000000
O        4.15461996       1.73160698       6.20753488
O        1.03692595       1.40327391       4.56250821
O        1.56912632       3.37871478       3.15958922
O        4.68682033       3.70704785       4.80461589
O        4.03841303       1.29092349       3.34972036
O        1.68533325       3.81939827       6.01740374
O        0.90302891       0.96469588       1.70094759
O        4.82071736       4.14562588       7.66617651
