10
Lattice="12.517335962870591 0.0 -1.2804558309817085 -1.2052919617896425 11.692160843516373 0.7002306582895602 0.0 0.0 13.06503333" Properties=species:S:1:pos:R:3 pbc="T T T"
Li       7.56334065       7.39006335       7.01606543
Li       5.93031584       6.05238614       5.40727014
S        8.29690853       5.57188767       5.71974270
S        7.72194459       4.91190904       7.56752916
S        6.38672215       3.36834621       7.34810292
S        4.67489768       4.01606012       6.41790282
S        3.45225539       4.91449780       7.86541813
S        2.97624698       6.79328353       7.19218201
S        4.40392566       8.14044028       7.69259383
S        5.67514863       8.31449458       6.07314348
