10
Lattice="12.345750594568239 0.0 -0.5036591080462444 -0.02262127879647533 12.802940817186947 -1.2705992369221493 0.0 0.0 13.38132891" Properties=species:S:1:pos:R:3 pbc="T T T"
Li       4.33648125       8.74151511       5.96419992
Li       5.89319839       6.62885064       5.34343950
S        6.60571166       8.98888073       5.42728469
S        7.02149881       8.12550162       7.26933548
S        8.68761978       6.94453275       7.05592289
S        8.15103644       5.28154596       5.90631176
S        7.13892340       3.96569812       7.18704883
S        5.13277663       3.89544838       6.68017212
S        4.09049639       5.51098747       7.44518635
S        3.48759372       6.57189035       5.75815109
