4
Lattice="4.960113 0.0 3.0371932544295877e-16 -3.0371932544295877e-16 4.960113 3.0371932544295877e-16 0.0 0.0 4.960113" Properties=species:S:1:pos:R:3 pbc="T T T"
Li       0.00000000       0.00000000       0.00000000
Sm      -0.00000000       2.48005650       2.48005650
Sm       2.48005650       0.00000000       2.48005650
Sm       2.48005650       2.48005650       0.00000000
