4
Lattice="4.892861 0.0 2.9960132811614586e-16 -2.9960132811614586e-16 4.892861 2.9960132811614586e-16 0.0 0.0 4.892861" Properties=species:S:1:pos:R:3 pbc="T T T"
Li       0.00000000       0.00000000       0.00000000
Tb      -0.00000000       2.44643050       2.44643050
Tb       2.44643050       0.00000000       2.44643050
Tb       2.44643050       2.44643050       0.00000000
