48
Lattice="8.7780748 0.0 5.375020603248022e-16 -4.389038196083298 7.602035313501044 5.375020603248022e-16 0.0 0.0 21.512377" Properties=species:S:1:pos:R:3 pbc="T T T"
Li      -0.00000053       5.06802354       8.99107645
Li       4.38903713       2.53401177       1.76511205
Li       4.38903713       2.53401177      12.52130055
Li      -0.00000053       5.06802354      19.74726495
Li      -0.00000053       5.06802354      14.31532523
Li       4.38903713       2.53401177      17.95324027
Li       4.38903713       2.53401177       7.19705177
Li      -0.00000053       5.06802354       3.55913673
Li       0.00000000       0.00000000      16.13428275
Li       0.00000000       0.00000000       5.37809425
Li       0.00000000       0.00000000      10.75618850
Li       0.00000000       0.00000000       0.00000000
Te       0.07832210       2.56003861       1.77864333
Te       2.13281694       6.38984517       1.77864333
Te      -2.21114064       6.25418685       1.77864333
Te       4.46735924       5.04199671       8.97754517
Te       6.52185489       1.21219014       8.97754517
Te       2.17789727       1.34784846       8.97754517
Te       4.31071450       5.04199671      19.73373367
Te       2.25621966       1.21219014      19.73373367
Te       6.60017724       1.34784846      19.73373367
Te      -0.07832264       2.56003861      12.53483183
Te      -2.13281828       6.38984517      12.53483183
Te       2.21113933       6.25418685      12.53483183
Te       4.54605907       5.09085499       3.56621430
Te       2.09623484       1.39157537       3.56621430
Te       6.52481750       1.11960495       3.56621430
Te       0.15702194       2.51118033       7.18997420
Te      -2.29280306       6.21045994       7.18997420
Te       2.13577953       6.48243036       7.18997420
Te      -0.15702246       2.51118033      17.94616270
Te       2.29280176       6.21045994      17.94616270
Te      -2.13578089       6.48243036      17.94616270
Te       4.23201466       5.09085499      14.32240280
Te       6.68183967       1.39157537      14.32240280
Te       2.25325707       1.11960495      14.32240280
Te       2.29029586       3.96690927      16.13428275
Te      -2.09874151       3.63512604      16.13428275
Te       4.19748225       0.00000000      16.13428275
Te       2.09874075       3.63512604       5.37809425
Te      -2.29029669       3.96690927       5.37809425
Te       4.58059255       0.00000000       5.37809425
Te      -2.19451910       3.80101766      10.75618850
Te       2.19451830       3.80101766      10.75618850
Te       4.38903740       0.00000000      10.75618850
Te       2.19451830       3.80101766       0.00000000
Te      -2.19451910       3.80101766       0.00000000
Te       4.38903740       0.00000000       0.00000000
