8
Lattice="5.18326238 0.0 3.1738328414039463e-16 -2.591631565272462 4.488836678896513 3.1738328414039463e-16 0.0 0.0 8.672592" Properties=species:S:1:pos:R:3 pbc="T T T"
Li      -0.00000025       2.99255779       3.62079849
Li       2.59163106       1.49627889       5.05179351
Li       2.59163106       1.49627889       7.95709449
Li      -0.00000025       2.99255779       0.71549751
Tl       0.00000000       0.00000000       2.16814800
Tl       0.00000000       0.00000000       6.50444400
Tl      -0.00000025       2.99255779       6.50444400
Tl       2.59163106       1.49627889       2.16814800
