4
Lattice="4.776323736491211 0.0 2.7576117950000003 1.5921079121637371 4.503161204286938 2.7576117950000003 0.0 0.0 5.51522359" Properties=species:S:1:pos:R:3 pbc="T T T"
Li       0.00000000       0.00000000       0.00000000
Y        1.59210791       1.12579030       2.75761179
Y        4.77632374       3.37737090       8.27283539
Y        3.18421582       2.25158060       5.51522359
