12
Lattice="5.813105785350705 0.0 3.356198190000001 1.937701928450235 5.480648694101646 3.356198190000001 0.0 0.0 6.71239638" Properties=species:S:1:pos:R:3 pbc="T T T"
Li       6.78195675       4.79556761      11.74669367
Li       3.87540386       4.79556761      10.06859457
Li       5.81310579       2.05524326      10.06859457
Li       6.78195675       4.79556761       8.39049548
Zn       4.63564958       3.27789925       8.02918060
Zn       2.35490659       3.27789925       6.71239302
Zn       3.87540192       1.12759414       6.71239302
Zn       3.45819919       0.83258727       3.35620155
Zn       1.17745620       0.83258727       2.03941397
Zn       4.63564958       3.27789925       5.39560544
Zn       1.93770387       2.98289238       3.35620155
Zn       1.17745620       0.83258727       4.67298913
