4
Lattice="6.3070796868443395 0.0 3.641394155000001 2.10235989561478 5.946371754735412 3.641394155000001 0.0 0.0 7.28278831" Properties=species:S:1:pos:R:3 pbc="T T T"
Rb       2.10235990       1.48659294       3.64139416
Rb       6.30707969       4.45977882      10.92418247
Rb       4.20471979       2.97318588       7.28278831
Li       0.00000000       0.00000000       0.00000000
