8
Lattice="8.11299991 0.0 4.967779685632131e-16 -4.056499867934154 7.026064073228352 4.967779685632131e-16 0.0 0.0 6.596997" Properties=species:S:1:pos:R:3 pbc="T T T"
Sr       0.00000003       2.38547522       1.64924925
Sr       1.99061790       5.83332646       1.64924925
Sr      -1.99061776       5.83332646       1.64924925
Sr       4.05650001       4.64058885       4.94774775
Sr       2.06588214       1.19273761       4.94774775
Sr       6.04711780       1.19273761       4.94774775
Li       0.00000006       4.68404272       4.94774775
Li       4.05649998       2.34202136       1.64924925
