3
Lattice="3.6743056 0.0 2.2498632960645973e-16 -1.8371527999999995 3.182041990867424 2.2498632960645973e-16 0.0 0.0 6.22883184" Properties=species:S:1:pos:R:3:oxi_states:R:1 pbc="T T T"
Sn       0.00000000       0.00000000       0.00000000       4.00000000
S        0.00000000       2.12136133       1.46161701      -2.00000000
S        1.83715280       1.06068066       4.76721483      -2.00000000
